powerfulcases/cases/matpower/case14/case14.raw
0, 100, 33, 0, 0, 60  / 28-Jan-2026 21:50:36 - MATPOWER 8.1


     1, 'Bus 1     HV',        10, 3,    1,    1, 1,        1.06,           0, 1.06, 0.94, 1.06, 0.94
     2, 'Bus 2     HV',        10, 2,    1,    1, 1,       1.045,       -4.98, 1.06, 0.94, 1.06, 0.94
     3, 'Bus 3     HV',        10, 2,    1,    1, 1,        1.01,      -12.72, 1.06, 0.94, 1.06, 0.94
     4, 'Bus 4     HV',        10, 1,    1,    1, 1,       1.019,      -10.33, 1.06, 0.94, 1.06, 0.94
     5, 'Bus 5     HV',        10, 1,    1,    1, 1,        1.02,       -8.78, 1.06, 0.94, 1.06, 0.94
     6, 'Bus 6     LV',        10, 2,    1,    1, 1,        1.07,      -14.22, 1.06, 0.94, 1.06, 0.94
     7, 'Bus 7     ZV',        10, 1,    1,    1, 1,       1.062,      -13.37, 1.06, 0.94, 1.06, 0.94
     8, 'Bus 8     TV',        10, 2,    1,    1, 1,        1.09,      -13.36, 1.06, 0.94, 1.06, 0.94
     9, 'Bus 9     LV',        10, 1,    1,    1, 1,       1.056,      -14.94, 1.06, 0.94, 1.06, 0.94
    10, 'Bus 10    LV',        10, 1,    1,    1, 1,       1.051,       -15.1, 1.06, 0.94, 1.06, 0.94
    11, 'Bus 11    LV',        10, 1,    1,    1, 1,       1.057,      -14.79, 1.06, 0.94, 1.06, 0.94
    12, 'Bus 12    LV',        10, 1,    1,    1, 1,       1.055,      -15.07, 1.06, 0.94, 1.06, 0.94
    13, 'Bus 13    LV',        10, 1,    1,    1, 1,        1.05,      -15.16, 1.06, 0.94, 1.06, 0.94
    14, 'Bus 14    LV',        10, 1,    1,    1, 1,       1.036,      -16.04, 1.06, 0.94, 1.06, 0.94
0 / END OF BUS DATA, BEGIN LOAD DATA
     2,  1, 1,    1,    1,      21.7,      12.7, 0, 0, 0, 0, 1, 1, 0
     3,  1, 1,    1,    1,      94.2,        19, 0, 0, 0, 0, 1, 1, 0
     4,  1, 1,    1,    1,      47.8,      -3.9, 0, 0, 0, 0, 1, 1, 0
     5,  1, 1,    1,    1,       7.6,       1.6, 0, 0, 0, 0, 1, 1, 0
     6,  1, 1,    1,    1,      11.2,       7.5, 0, 0, 0, 0, 1, 1, 0
     9,  1, 1,    1,    1,      29.5,      16.6, 0, 0, 0, 0, 1, 1, 0
    10,  1, 1,    1,    1,         9,       5.8, 0, 0, 0, 0, 1, 1, 0
    11,  1, 1,    1,    1,       3.5,       1.8, 0, 0, 0, 0, 1, 1, 0
    12,  1, 1,    1,    1,       6.1,       1.6, 0, 0, 0, 0, 1, 1, 0
    13,  1, 1,    1,    1,      13.5,       5.8, 0, 0, 0, 0, 1, 1, 0
    14,  1, 1,    1,    1,      14.9,         5, 0, 0, 0, 0, 1, 1, 0
0 / END OF LOAD DATA, BEGIN FIXED SHUNT DATA
     9, 1, 1,       0,      19
0 / END OF FIXED SHUNT DATA, BEGIN GENERATOR DATA
     1,  1,     232.4,     -16.9,        10,         0,     1.06, 0,     100, 0, 1, 0, 0, 1, 1, 100,     332.4,         0, 1, 1, 0, 1, 0, 1, 0, 1, 0, 1
     2,  1,        40,      42.4,        50,       -40,    1.045, 0,     100, 0, 1, 0, 0, 1, 1, 100,       140,         0, 1, 1, 0, 1, 0, 1, 0, 1, 0, 1
     3,  1,         0,      23.4,        40,         0,     1.01, 0,     100, 0, 1, 0, 0, 1, 1, 100,       100,         0, 1, 1, 0, 1, 0, 1, 0, 1, 0, 1
     6,  1,         0,      12.2,        24,        -6,     1.07, 0,     100, 0, 1, 0, 0, 1, 1, 100,       100,         0, 1, 1, 0, 1, 0, 1, 0, 1, 0, 1
     8,  1,         0,      17.4,        24,        -6,     1.09, 0,     100, 0, 1, 0, 0, 1, 1, 100,       100,         0, 1, 1, 0, 1, 0, 1, 0, 1, 0, 1
0 / END OF GENERATOR DATA, BEGIN BRANCH DATA
     1,      2, 1,  0.01938,  0.05917,   0.0528,       0,       0,       0, 0, 0, 0, 0, 1, 1, 0, 1, 1, 0, 1, 0, 1, 0, 1
     1,      5, 1,  0.05403,  0.22304,   0.0492,       0,       0,       0, 0, 0, 0, 0, 1, 1, 0, 1, 1, 0, 1, 0, 1, 0, 1
     2,      3, 1,  0.04699,  0.19797,   0.0438,       0,       0,       0, 0, 0, 0, 0, 1, 1, 0, 1, 1, 0, 1, 0, 1, 0, 1
     2,      4, 1,  0.05811,  0.17632,    0.034,       0,       0,       0, 0, 0, 0, 0, 1, 1, 0, 1, 1, 0, 1, 0, 1, 0, 1
     2,      5, 1,  0.05695,  0.17388,   0.0346,       0,       0,       0, 0, 0, 0, 0, 1, 1, 0, 1, 1, 0, 1, 0, 1, 0, 1
     3,      4, 1,  0.06701,  0.17103,   0.0128,       0,       0,       0, 0, 0, 0, 0, 1, 1, 0, 1, 1, 0, 1, 0, 1, 0, 1
     4,      5, 1,  0.01335,  0.04211,        0,       0,       0,       0, 0, 0, 0, 0, 1, 1, 0, 1, 1, 0, 1, 0, 1, 0, 1
     6,     11, 1,  0.09498,   0.1989,        0,       0,       0,       0, 0, 0, 0, 0, 1, 1, 0, 1, 1, 0, 1, 0, 1, 0, 1
     6,     12, 1,  0.12291,  0.25581,        0,       0,       0,       0, 0, 0, 0, 0, 1, 1, 0, 1, 1, 0, 1, 0, 1, 0, 1
     6,     13, 1,  0.06615,  0.13027,        0,       0,       0,       0, 0, 0, 0, 0, 1, 1, 0, 1, 1, 0, 1, 0, 1, 0, 1
     7,      8, 1,        0,  0.17615,        0,       0,       0,       0, 0, 0, 0, 0, 1, 1, 0, 1, 1, 0, 1, 0, 1, 0, 1
     7,      9, 1,        0,  0.11001,        0,       0,       0,       0, 0, 0, 0, 0, 1, 1, 0, 1, 1, 0, 1, 0, 1, 0, 1
     9,     10, 1,  0.03181,   0.0845,        0,       0,       0,       0, 0, 0, 0, 0, 1, 1, 0, 1, 1, 0, 1, 0, 1, 0, 1
     9,     14, 1,  0.12711,  0.27038,        0,       0,       0,       0, 0, 0, 0, 0, 1, 1, 0, 1, 1, 0, 1, 0, 1, 0, 1
    10,     11, 1,  0.08205,  0.19207,        0,       0,       0,       0, 0, 0, 0, 0, 1, 1, 0, 1, 1, 0, 1, 0, 1, 0, 1
    12,     13, 1,  0.22092,  0.19988,        0,       0,       0,       0, 0, 0, 0, 0, 1, 1, 0, 1, 1, 0, 1, 0, 1, 0, 1
    13,     14, 1,  0.17093,  0.34802,        0,       0,       0,       0, 0, 0, 0, 0, 1, 1, 0, 1, 1, 0, 1, 0, 1, 0, 1
0 / END OF BRANCH DATA, BEGIN TRANSFORMER DATA
     4,      7, 0, 1, 1, 1, 1, 0, 0, 2, '            ', 1, 1, 1, 0, 1, 0, 1, 0, 1, '            '
0, 0.20912, 100
0.978, 0,     0,       0,       0,       0, 0, 0, 1.1, 0.9, 1.1, 0.9, 33, 0, 0, 0, 0
    1, 0
     4,      9, 0, 1, 1, 1, 1, 0, 0, 2, '            ', 1, 1, 1, 0, 1, 0, 1, 0, 1, '            '
0, 0.55618, 100
0.969, 0,     0,       0,       0,       0, 0, 0, 1.1, 0.9, 1.1, 0.9, 33, 0, 0, 0, 0
    1, 0
     5,      6, 0, 1, 1, 1, 1, 0, 0, 2, '            ', 1, 1, 1, 0, 1, 0, 1, 0, 1, '            '
0, 0.25202, 100
0.932, 0,     0,       0,       0,       0, 0, 0, 1.1, 0.9, 1.1, 0.9, 33, 0, 0, 0, 0
    1, 0
0 / END OF TRANSFORMER DATA, BEGIN AREA DATA
0 / END OF AREA DATA, BEGIN TWO-TERMINAL DC DATA
0 / END OF TWO-TERMINAL DC DATA, BEGIN VOLTAGE SOURCE CONVERTER DATA
0 / END OF VOLTAGE SOURCE CONVERTER DATA, BEGIN IMPEDANCE CORRECTION DATA
0 / END OF IMPEDANCE CORRECTION DATA, BEGIN MULTI-TERMINAL DC DATA
0 / END OF MULTI-TERMINAL DC DATA, BEGIN MULTI-SECTION LINE DATA
0 / END OF MULTI-SECTION LINE DATA, BEGIN ZONE DATA
0 / END OF ZONE DATA, BEGIN INTER-AREA TRANSFER DATA
0 / END OF INTER-AREA TRANSFER DATA, BEGIN OWNER DATA
0 / END OF OWNER DATA, BEGIN FACTS CONTROL DEVICE DATA
0 / END OF FACTS CONTROL DEVICE DATA, BEGIN SWITCHED SHUNT DATA
0 / END OF SWITCHED SHUNT DATA, BEGIN GNE DEVICE DATA
0 / END OF GNE DEVICE DATA, BEGIN INDUCTION MACHINE DATA
0 / END OF INDUCTION MACHINE DATA
Q
